Version 4
SHEET 1 1028 680
WIRE 592 -16 64 -16
WIRE 352 48 -96 48
WIRE 432 48 352 48
WIRE 848 48 432 48
WIRE -96 64 -96 48
WIRE 432 64 432 48
WIRE 352 144 352 48
WIRE 352 144 256 144
WIRE 848 144 848 48
WIRE 848 144 784 144
WIRE -96 160 -96 144
WIRE 64 160 64 -16
WIRE 64 160 -96 160
WIRE 128 160 64 160
WIRE 656 160 560 160
WIRE 432 176 432 144
WIRE 432 176 256 176
WIRE 944 176 784 176
WIRE -96 192 -96 160
WIRE 128 192 80 192
WIRE 432 192 432 176
WIRE 592 192 592 -16
WIRE 656 192 592 192
WIRE 944 192 944 176
WIRE 288 208 256 208
WIRE 816 208 784 208
WIRE 80 288 80 192
WIRE 560 288 560 160
WIRE 560 288 80 288
WIRE -96 304 -96 272
WIRE 80 304 80 288
WIRE 80 448 80 384
FLAG 432 192 0
FLAG 288 208 VOUT1
IOPIN 288 208 Out
FLAG -96 304 0
FLAG 80 448 0
FLAG 944 192 0
FLAG 816 208 VOUT2
IOPIN 816 208 Out
FLAG 64 -16 Vref
IOPIN 64 -16 In
FLAG 80 192 Input
IOPIN 80 192 In
SYMBOL AutoGenerated\\LMX24_LM2902 192 176 R0
SYMATTR InstName U1
SYMBOL voltage 432 48 R0
SYMATTR InstName VCC
SYMATTR Value 5
SYMBOL res -112 48 R0
SYMATTR InstName R1
SYMATTR Value 1.74K
SYMBOL res -112 176 R0
SYMATTR InstName R2
SYMATTR Value 3.24K
SYMBOL voltage 80 288 R0
SYMATTR InstName V2
SYMATTR Value PWL(0 2.8 0.5 3 1 3.2 1.5 3.4 2 3.6)
SYMBOL AutoGenerated\\LMX24_LM2902 720 176 R0
SYMATTR InstName U2
TEXT -56 -80 Left 2 !.tran 0 2 0 0.1
