Version 4
SHEET 1 880 680
WIRE 320 -32 32 -32
WIRE -288 32 -288 -32
WIRE 192 128 192 80
WIRE 32 144 32 -32
WIRE 160 144 32 144
WIRE -288 160 -288 112
WIRE -176 160 -288 160
WIRE 320 160 320 -32
WIRE 320 160 224 160
WIRE 432 160 320 160
WIRE 160 176 32 176
WIRE -288 192 -288 160
WIRE -176 192 -176 160
WIRE 32 240 32 176
WIRE 192 240 192 192
WIRE -288 336 -288 272
WIRE 32 384 32 320
FLAG -176 192 0
FLAG -288 -32 Vcc
IOPIN -288 -32 In
FLAG -288 336 Vee
IOPIN -288 336 In
FLAG 192 80 Vcc
IOPIN 192 80 In
FLAG 192 240 Vee
IOPIN 192 240 In
FLAG 32 384 0
FLAG 432 160 Vout
IOPIN 432 160 Out
FLAG 32 176 Vin
IOPIN 32 176 In
SYMBOL Comparators\\LT1017 192 160 R0
SYMATTR InstName U1
SYMBOL voltage -288 16 R0
SYMATTR InstName V1
SYMATTR Value 5V
SYMBOL voltage -288 176 R0
SYMATTR InstName V2
SYMATTR Value 5V
SYMBOL voltage 32 224 R0
SYMATTR InstName V3
SYMATTR Value SINE(0 3 1K 0 0 0 10)
TEXT 8 -88 Left 2 !.tran 0 10ms 0 0.1
