Version 4
SHEET 1 2732 932
WIRE -144 -448 -256 -448
WIRE 64 -448 -144 -448
WIRE 64 -432 64 -448
WIRE -256 -400 -256 -448
WIRE -144 -368 -144 -448
WIRE -80 -368 -144 -368
WIRE -48 -368 -80 -368
WIRE 224 -368 176 -368
WIRE 224 -352 224 -368
WIRE -144 -304 -144 -368
WIRE -256 -272 -256 -320
WIRE 224 -272 224 -288
WIRE 224 -272 176 -272
WIRE -80 -176 -80 -368
WIRE -48 -176 -80 -176
WIRE 224 -176 176 -176
WIRE 368 -176 368 -208
WIRE 368 -176 224 -176
WIRE -144 -160 -144 -240
WIRE 224 -160 224 -176
WIRE -144 -80 -160 -80
WIRE -48 -80 -64 -80
WIRE 224 -80 224 -96
WIRE 224 -80 176 -80
WIRE 224 -64 224 -80
WIRE 64 0 64 -16
WIRE 224 16 224 0
FLAG 64 0 0
FLAG -256 -272 0
FLAG 224 16 0
FLAG -160 -80 0
FLAG -144 -160 0
FLAG -256 -448 IN
FLAG 368 -208 Vout
SYMBOL PowerProducts\\LTC3225 64 -224 R0
SYMATTR InstName U1
SYMBOL voltage -256 -416 R0
WINDOW 123 24 146 Left 2
WINDOW 39 24 125 Left 2
SYMATTR InstName V1
SYMATTR Value 3.6
SYMBOL cap 208 -352 R0
SYMATTR InstName C1
SYMATTR Value 1µ
SYMBOL cap 208 -160 R0
WINDOW 3 28 51 Left 2
SYMATTR Value 0.1m
SYMATTR InstName C2
SYMBOL cap 208 -64 R0
WINDOW 0 27 13 Left 2
WINDOW 3 25 55 Left 2
SYMATTR InstName C3
SYMATTR Value 0.1m
SYMBOL res -48 -96 R90
WINDOW 0 0 56 VBottom 2
WINDOW 3 32 56 VTop 2
SYMATTR InstName R1
SYMATTR Value 12K
SYMBOL cap -160 -304 R0
SYMATTR InstName C4
SYMATTR Value 2.2µ
TEXT -16 112 Left 2 !.tran 0 5 0 1 startup
