Version 4
SHEET 1 1132 840
WIRE 512 336 368 336
WIRE 368 368 368 336
WIRE 832 368 704 368
WIRE 512 416 512 336
WIRE 832 416 832 368
WIRE 704 464 704 368
WIRE 368 480 368 448
WIRE 832 528 832 496
WIRE 512 544 512 496
WIRE 384 608 320 608
WIRE 464 608 384 608
WIRE 704 608 704 544
WIRE 704 608 560 608
WIRE 800 608 704 608
WIRE 384 672 384 608
WIRE 384 800 384 752
FLAG 368 480 0
FLAG 832 528 0
FLAG 320 608 LV_side
IOPIN 320 608 In
FLAG 800 608 HV_side
IOPIN 800 608 Out
FLAG 384 800 0
SYMBOL npn 560 544 R90
SYMATTR InstName Q2
SYMBOL res 496 400 R0
SYMATTR InstName R3
SYMATTR Value 4.7K
SYMBOL res 688 448 R0
SYMATTR InstName R4
SYMATTR Value 4.7K
SYMBOL voltage 368 352 R0
SYMATTR InstName V4
SYMATTR Value 1
SYMBOL voltage 832 400 R0
SYMATTR InstName V5
SYMATTR Value 2.5
SYMBOL voltage 384 656 R0
SYMATTR InstName V6
SYMATTR Value PULSE(0 1 0 0 0 1 2 3)
TEXT 158 824 Left 2 !.tran 0 3 0 1
