Version 4
SHEET 1 880 680
WIRE 48 64 48 0
WIRE 48 64 -128 64
WIRE 416 112 304 112
WIRE 48 128 48 64
WIRE 112 128 48 128
WIRE 416 128 416 112
WIRE 112 160 -48 160
WIRE -128 176 -128 144
WIRE 384 176 304 176
WIRE 112 192 32 192
WIRE 416 208 304 208
WIRE -48 224 -48 160
WIRE 384 256 384 176
WIRE 32 304 32 192
WIRE 384 384 384 336
WIRE 32 432 32 384
FLAG -48 224 0
FLAG -128 176 0
FLAG 416 208 VOUT
IOPIN 416 208 Out
FLAG 384 384 0
FLAG 416 128 0
FLAG 32 432 0
FLAG 48 0 VIN
IOPIN 48 0 In
FLAG 32 192 EN
SYMBOL AutoGenerated\\TPS2553_TRANS 208 160 R0
SYMATTR InstName U1
SYMBOL voltage -128 48 R0
SYMATTR InstName V1
SYMATTR Value 5
SYMBOL res 368 240 R0
SYMATTR InstName R1
SYMATTR Value 47K
SYMBOL voltage 32 288 R0
SYMATTR InstName V2
SYMATTR Value PULSE(0 5 0 0 0 1 2 4)
TEXT -162 456 Left 2 !.tran 0 5 0 0.1
