Version 4
SHEET 1 984 680
WIRE 16 -16 16 -48
WIRE 240 32 208 32
WIRE 320 32 304 32
WIRE 512 32 320 32
WIRE -144 48 -144 -48
WIRE 16 80 16 64
WIRE 112 80 16 80
WIRE 16 112 16 80
WIRE 32 112 16 112
WIRE 320 112 320 32
WIRE 320 112 304 112
WIRE 320 160 304 160
WIRE 32 192 32 160
WIRE 112 192 112 80
WIRE 112 192 80 192
WIRE 208 192 208 32
WIRE 208 192 112 192
WIRE 256 192 208 192
WIRE 320 192 320 160
WIRE 320 192 304 192
WIRE 512 192 512 32
WIRE -144 208 -144 128
WIRE -144 208 -272 208
WIRE -144 240 -144 208
WIRE -272 272 -272 208
WIRE 32 272 32 208
WIRE 176 272 32 272
WIRE 304 272 304 208
WIRE 304 272 176 272
WIRE 512 352 512 272
WIRE -144 384 -144 320
WIRE 176 384 176 272
FLAG 512 352 0
FLAG -272 272 0
FLAG 16 -48 VDD
FLAG -144 -48 VDD
FLAG 176 384 VSS
FLAG -144 384 VSS
SYMBOL nmos4 256 112 R0
SYMATTR InstName M1
SYMATTR Value2 l=5 w=15
SYMBOL nmos4 80 112 M0
SYMATTR InstName M2
SYMATTR Value2 l=5 w=15
SYMBOL voltage -144 32 R0
WINDOW 123 0 0 Left 2
WINDOW 39 0 0 Left 2
SYMATTR InstName V1
SYMATTR Value 2.5V
SYMBOL voltage -144 224 R0
WINDOW 123 0 0 Left 2
WINDOW 39 0 0 Left 2
SYMATTR InstName V2
SYMATTR Value 2.5V
SYMBOL voltage 512 176 R0
WINDOW 123 0 0 Left 2
WINDOW 39 0 0 Left 2
SYMATTR InstName V3
SYMATTR Value PULSE(0 2.5 1n 1n 1n 100n 200n 3)
SYMBOL res 0 -32 R0
SYMATTR InstName R1
SYMATTR Value 380K
SYMBOL cap 304 16 R90
WINDOW 0 0 32 VBottom 2
WINDOW 3 32 32 VTop 2
SYMATTR InstName C1
SYMATTR Value 100f
TEXT -232 -256 Left 2 !.MODEL NMOS NMOS(VT0=0.83 LAMBDA=0.06 KP=50U)
TEXT -184 -184 Left 2 !.tran 600ns
