Version 4
SHEET 1 880 680
WIRE 336 128 272 128
WIRE 480 128 400 128
WIRE 496 128 480 128
WIRE 16 144 -48 144
WIRE 128 144 96 144
WIRE 480 160 480 128
WIRE -96 176 -96 144
WIRE -48 176 -48 144
WIRE -48 176 -96 176
WIRE 128 176 -48 176
WIRE -48 192 -48 176
WIRE 384 192 272 192
WIRE 384 224 384 192
WIRE 480 272 480 240
WIRE -48 304 -48 272
FLAG 384 224 0
FLAG -48 304 0
FLAG -96 144 VIN
IOPIN -96 144 In
FLAG 496 128 VOUT
IOPIN 496 128 Out
FLAG 480 272 0
SYMBOL AutoGenerated\\LP5907_3P8_TRANS 192 160 R0
SYMATTR InstName U1
SYMBOL voltage -48 176 R0
SYMATTR InstName V1
SYMATTR Value 5V
SYMBOL res 0 160 R270
WINDOW 0 74 46 VTop 2
WINDOW 3 71 47 VBottom 2
SYMATTR InstName R1
SYMATTR Value 1K
SYMBOL schottky 336 144 R270
WINDOW 0 32 32 VTop 2
WINDOW 3 0 32 VBottom 2
SYMATTR InstName D1
SYMATTR Value NRVB0540T1G
SYMATTR Description Diode
SYMATTR Type diode
SYMBOL res 464 144 R0
SYMATTR InstName R2
SYMATTR Value 240
TEXT -40 -8 Left 2 !.tran 0 1 0 0.1
