Version 4
SHEET 1 880 680
WIRE -144 -32 -176 -32
WIRE 0 -32 -64 -32
WIRE 320 -32 0 -32
WIRE 416 -32 320 -32
WIRE -176 16 -176 -32
WIRE 0 80 0 -32
WIRE 176 80 128 80
WIRE 288 80 240 80
WIRE 416 80 416 -32
WIRE -16 128 -80 128
WIRE 128 128 128 80
WIRE 128 128 80 128
WIRE 288 128 288 80
WIRE 336 128 288 128
WIRE 480 128 432 128
WIRE 128 176 128 128
WIRE 176 176 128 176
WIRE 288 176 288 128
WIRE 288 176 240 176
WIRE -80 368 -80 128
WIRE 480 368 480 128
WIRE -80 480 -80 448
WIRE 480 480 480 448
FLAG 320 -32 WL
FLAG 288 128 Qbar
FLAG 128 128 Q
FLAG -80 480 0
FLAG 480 480 0
FLAG -176 16 0
FLAG 480 128 Bitline
IOPIN 480 128 BiDir
FLAG -80 128 Bitline_Bar
IOPIN -80 128 BiDir
SYMBOL Digital\\inv 176 16 R0
WINDOW 0 17 36 Left 2
SYMATTR InstName A1
SYMBOL Digital\\inv 240 240 R180
SYMATTR InstName A2
SYMBOL nmos 80 80 R90
SYMATTR InstName M1
SYMBOL nmos 336 80 M90
SYMATTR InstName M2
SYMBOL voltage -48 -32 R90
WINDOW 0 50 6 Invisible 2
WINDOW 3 -54 -15 VBottom 2
WINDOW 123 0 0 Left 2
WINDOW 39 0 0 Left 2
WINDOW -1 8 -9 VRight 2
WINDOW -1 8 -8 VRight 2
SYMATTR InstName WL
SYMATTR Value PWL(0 0 1 1 3 1 4 0)
SYMBOL voltage -80 352 R0
WINDOW 0 -145 6 Left 2
SYMATTR InstName BitLine_Bar
SYMATTR Value 0
SYMBOL voltage 480 352 R0
WINDOW 0 12 5 Left 2
SYMATTR InstName BitLine
SYMATTR Value 1
TEXT -152 -160 Left 2 !.tran 0 8s 0 1s
