Version 4
SHEET 1 880 680
WIRE -672 -320 -1552 -320
WIRE -1552 -256 -1552 -320
WIRE -1552 -80 -1552 -176
WIRE -944 -80 -1552 -80
WIRE -1552 -16 -1552 -80
WIRE -672 -16 -672 -320
WIRE -672 -16 -1376 -16
WIRE -976 0 -1280 0
WIRE -1232 64 -1296 64
WIRE -672 64 -672 -16
WIRE -672 64 -1008 64
WIRE -672 96 -672 64
WIRE -1552 128 -1552 64
WIRE -1280 128 -1280 0
WIRE -1280 128 -1552 128
WIRE -1232 128 -1280 128
WIRE -944 128 -944 -80
WIRE -944 128 -1008 128
WIRE -1232 192 -1264 192
WIRE -976 192 -976 0
WIRE -976 192 -1008 192
WIRE -1376 256 -1376 -16
WIRE -1232 256 -1376 256
WIRE -1552 304 -1552 128
WIRE -1376 304 -1376 256
WIRE -1552 416 -1552 368
WIRE -1376 416 -1376 384
WIRE -1376 416 -1552 416
WIRE -1296 416 -1296 64
WIRE -1296 416 -1376 416
WIRE -944 416 -1296 416
WIRE -672 416 -672 176
WIRE -672 416 -944 416
WIRE -944 448 -944 416
FLAG -944 448 0
SYMBOL Misc\\NE555 -1120 160 R0
SYMATTR InstName U2
SYMBOL voltage -672 80 R0
SYMATTR InstName V2
SYMATTR Value 5V
SYMBOL res -1392 288 R0
SYMATTR InstName R4
SYMATTR Value 22K
SYMBOL cap -1568 304 R0
SYMATTR InstName C2
SYMATTR Value 0.001µF
SYMBOL res -1568 -32 R0
SYMATTR InstName R5
SYMATTR Value 10K
SYMBOL res -1568 -272 R0
SYMATTR InstName R6
SYMATTR Value 10K
TEXT -1784 -144 Left 2 !.tran 0 1ms 0 0.01ms
