Version 4
SHEET 1 880 680
WIRE -64 -208 -496 -208
WIRE 192 -208 -64 -208
WIRE 192 -144 192 -208
WIRE 192 -16 192 -80
WIRE -64 32 -64 -208
WIRE -496 48 -496 -208
WIRE 192 112 192 64
WIRE -64 160 -64 96
WIRE -16 160 -64 160
WIRE 128 160 64 160
WIRE -64 224 -64 160
WIRE -496 352 -496 128
WIRE -64 352 -64 304
WIRE -64 352 -496 352
WIRE 192 352 192 208
WIRE 192 352 -64 352
WIRE 192 368 192 352
FLAG 192 368 0
SYMBOL npn2 128 112 R0
SYMATTR InstName Q1
SYMBOL res -80 208 R0
SYMATTR InstName R1
SYMATTR Value 10K
SYMBOL res 80 144 R90
WINDOW 0 0 56 VBottom 2
WINDOW 3 32 56 VTop 2
SYMATTR InstName R2
SYMATTR Value 47K
SYMBOL zener -48 96 R180
WINDOW 0 24 64 Left 2
WINDOW 3 24 0 Left 2
SYMATTR InstName D1
SYMATTR Value BZX84C12L
SYMATTR Description Diode
SYMATTR Type diode
SYMBOL LED 176 -144 R0
SYMATTR InstName D2
SYMATTR Value NSPW500BS
SYMATTR Description Diode
SYMATTR Type diode
SYMBOL res 176 -32 R0
SYMATTR InstName R3
SYMATTR Value 330
SYMBOL voltage -496 32 R0
SYMATTR InstName V1
SYMATTR Value SINE(11 1.6 1)
TEXT -720 -56 Left 2 !.tran 0 1 0 0.1
