Version 4
SHEET 1 1412 680
WIRE 576 -16 480 -16
WIRE 848 -16 576 -16
WIRE 944 -16 848 -16
WIRE 1120 -16 944 -16
WIRE 320 0 48 0
WIRE 480 16 480 -16
WIRE 48 32 48 0
WIRE 944 48 944 -16
WIRE 320 64 320 0
WIRE 848 80 848 -16
WIRE 576 128 576 -16
WIRE 1120 128 1120 -16
WIRE 480 144 480 96
WIRE 544 144 480 144
WIRE 1088 144 1024 144
WIRE 720 160 608 160
WIRE 1216 160 1152 160
WIRE 320 176 320 144
WIRE 416 176 320 176
WIRE 544 176 416 176
WIRE 944 176 944 128
WIRE 1088 176 944 176
WIRE 480 192 480 144
WIRE 944 192 944 176
WIRE 320 208 320 176
WIRE 48 288 48 112
WIRE 320 288 320 272
WIRE 320 288 48 288
WIRE 480 288 480 272
WIRE 480 288 320 288
WIRE 576 288 576 192
WIRE 576 288 480 288
WIRE 848 288 848 160
WIRE 848 288 576 288
WIRE 944 288 944 272
WIRE 944 288 848 288
WIRE 1120 288 1120 192
WIRE 1120 288 944 288
WIRE 320 336 320 288
WIRE 416 352 416 176
WIRE 1024 352 1024 144
WIRE 1024 352 416 352
FLAG 320 336 0
SYMBOL zener 336 272 R180
WINDOW 0 24 64 Left 2
WINDOW 3 -61 2 Left 2
SYMATTR InstName D1
SYMATTR Value 1N750
SYMBOL voltage 48 16 R0
WINDOW 3 -124 106 Left 2
WINDOW 123 0 0 Left 2
WINDOW 39 0 0 Left 2
WINDOW -1 -124 134 Left 2
WINDOW 1 -124 162 Left 2
SYMATTR Value PULSE(0 6 0 0 0 1 2 10)
SYMATTR InstName V1
SYMBOL res 304 48 R0
SYMATTR InstName R1
SYMATTR Value 147
SYMBOL Comparators\\LT1017 576 160 R0
SYMATTR InstName U1
SYMBOL voltage 848 64 R0
SYMATTR InstName V2
SYMATTR Value 5
SYMBOL res 464 0 R0
SYMATTR InstName R2
SYMATTR Value 1K
SYMBOL res 464 176 R0
SYMATTR InstName R3
SYMATTR Value 1.8K
SYMBOL Comparators\\LT1017 1120 160 R0
SYMATTR InstName U2
SYMBOL res 928 32 R0
SYMATTR InstName R4
SYMATTR Value 4.7K
SYMBOL res 928 176 R0
SYMATTR InstName R5
SYMATTR Value 680
TEXT -80 360 Left 2 !.tran 0 5 0 0.1
