Version 4
SHEET 1 880 680
WIRE 96 -112 0 -112
WIRE 96 -48 96 -112
WIRE 240 -48 96 -48
WIRE 512 -48 416 -48
WIRE 0 -16 0 -32
WIRE 416 16 416 -48
WIRE 512 64 512 32
WIRE 96 80 96 -48
WIRE 240 112 240 -48
WIRE 96 160 -272 160
WIRE 224 160 96 160
WIRE 416 160 416 96
WIRE 416 160 320 160
WIRE -272 192 -272 160
WIRE -272 320 -272 272
FLAG 0 -16 0
FLAG 512 64 0
FLAG -272 320 0
SYMBOL nmos 320 112 R90
SYMATTR InstName M1
SYMATTR Value BSS123
SYMBOL res 80 64 R0
SYMATTR InstName R1
SYMATTR Value 10K
SYMBOL res 400 0 R0
SYMATTR InstName R2
SYMATTR Value 10K
SYMBOL voltage 0 -128 R0
SYMATTR InstName V1
SYMATTR Value 3.3
SYMBOL voltage 512 -64 R0
SYMATTR InstName V2
SYMATTR Value 5
SYMBOL voltage -272 176 R0
SYMATTR InstName V3
SYMATTR Value PULSE(0 3.3 0 0 0 100ms 200ms 10)
TEXT -288 80 Left 2 !.tran 2
