Version 4
SHEET 1 880 680
WIRE 96 48 64 48
WIRE 64 64 64 48
WIRE 80 128 48 128
WIRE 272 128 160 128
WIRE 176 160 176 48
WIRE -240 176 -272 176
WIRE -80 176 -160 176
WIRE 48 176 48 128
WIRE 48 176 0 176
WIRE 144 176 48 176
WIRE 272 192 272 128
WIRE 272 192 208 192
WIRE 352 192 272 192
WIRE 144 208 112 208
WIRE 112 240 112 208
WIRE -272 272 -272 176
WIRE 96 320 64 320
WIRE 176 320 176 224
WIRE 64 368 64 320
FLAG 352 192 Out
IOPIN 352 192 Out
FLAG -272 272 0
FLAG 64 368 0
FLAG 64 64 0
FLAG 112 240 0
SYMBOL Opamps\\UniversalOpamp2 176 192 R0
SYMATTR InstName U1
SYMBOL voltage 192 48 R90
WINDOW 0 -12 108 VBottom 2
WINDOW 3 -35 10 VTop 2
WINDOW 123 0 0 Left 2
WINDOW 39 0 0 Left 2
SYMATTR InstName +Vcc
SYMATTR Value 50
SYMBOL voltage 192 320 R90
WINDOW 0 55 85 VBottom 2
WINDOW 3 4 6 VTop 2
WINDOW 123 0 0 Left 2
WINDOW 39 0 0 Left 2
SYMATTR InstName -Vcc
SYMATTR Value -50
SYMBOL res 64 144 R270
WINDOW 0 25 6 VTop 2
WINDOW 3 -1 31 VBottom 2
SYMATTR InstName R1
SYMATTR Value 5k
SYMBOL res 16 160 R90
WINDOW 0 0 56 VBottom 2
WINDOW 3 32 56 VTop 2
SYMATTR InstName R2
SYMATTR Value 1k
SYMBOL voltage -144 176 R90
WINDOW 0 -8 102 VBottom 2
WINDOW 3 32 56 VTop 2
WINDOW 123 0 0 Left 2
WINDOW 39 0 0 Left 2
SYMATTR InstName Vin
SYMATTR Value SINE(0 5 50k 0 0 0 100)
TEXT -120 392 Left 2 !.tran 50m
