Version 4
SHEET 1 1496 680
WIRE 496 -272 304 -272
WIRE 304 -224 304 -272
WIRE 496 -208 496 -272
WIRE 304 -112 304 -144
WIRE 304 -112 208 -112
WIRE 496 -80 496 -128
WIRE 304 -64 304 -112
WIRE 208 -48 208 -112
WIRE 208 64 208 16
WIRE 304 64 304 16
WIRE 304 64 208 64
WIRE 384 64 304 64
WIRE 208 96 208 64
WIRE -128 144 -208 144
WIRE 112 144 112 64
WIRE 112 144 16 144
WIRE 144 144 112 144
WIRE -208 208 -208 144
WIRE 208 224 208 192
WIRE 208 224 96 224
WIRE 208 272 208 224
WIRE 96 304 96 224
WIRE 208 400 208 352
WIRE -208 448 -208 288
WIRE 96 448 96 368
WIRE 208 528 208 480
FLAG 496 -80 0
FLAG 96 448 0
FLAG 208 528 0
FLAG -208 448 0
FLAG 112 64 Vin
IOPIN 112 64 In
FLAG 384 64 Vout
IOPIN 384 64 Out
SYMBOL cap 192 -48 R0
SYMATTR InstName C49
SYMATTR Value 47pf
SYMBOL ind 288 -80 R0
SYMATTR InstName L1
SYMATTR Value 0.22µH
SYMBOL cap 80 304 R0
SYMATTR InstName C3
SYMATTR Value 150pf
SYMBOL ind 192 256 R0
SYMATTR InstName L2
SYMATTR Value 18µH
SYMBOL res 192 384 R0
SYMATTR InstName R3
SYMATTR Value 10E
SYMBOL res 288 -240 R0
SYMATTR InstName R20
SYMATTR Value 47E
SYMBOL voltage 496 -224 R0
SYMATTR InstName V1
SYMATTR Value 12V
SYMBOL cap 16 128 R90
WINDOW 0 0 32 VBottom 2
WINDOW 3 32 32 VTop 2
SYMATTR InstName C2
SYMATTR Value 15pf
SYMBOL res -32 128 R90
WINDOW 0 0 56 VBottom 2
WINDOW 3 32 56 VTop 2
SYMATTR InstName R31
SYMATTR Value 1K
SYMBOL voltage -208 192 R0
WINDOW 3 -338 106 Left 2
SYMATTR Value PULSE(0 5 0 0 0 0.012291052us 0.024582104us 50)
SYMATTR InstName V2
SYMBOL npn 144 96 R0
SYMATTR InstName Q1
SYMATTR Value MPS5179
TEXT -552 552 Left 2 !.tran 0 1us 0.1us
