Version 4
SHEET 1 1544 680
WIRE -496 0 -496 -32
WIRE -368 0 -496 0
WIRE 624 0 -368 0
WIRE -496 64 -496 0
WIRE 320 64 272 64
WIRE -368 80 -368 0
WIRE -304 80 -368 80
WIRE -160 80 -240 80
WIRE 32 80 -160 80
WIRE 80 80 32 80
WIRE -160 96 -160 80
WIRE 32 112 32 80
WIRE 80 112 32 112
WIRE 624 112 624 0
WIRE 320 128 320 64
WIRE 320 128 272 128
WIRE 320 160 320 128
WIRE 320 160 272 160
WIRE 400 160 320 160
WIRE 32 176 32 112
WIRE 80 176 32 176
WIRE -496 192 -496 128
WIRE 320 192 320 160
WIRE 320 192 272 192
WIRE -160 208 -160 176
WIRE -160 208 -320 208
WIRE 48 208 -160 208
WIRE 80 208 48 208
WIRE 400 208 400 160
WIRE -320 240 -320 208
WIRE -160 240 -160 208
WIRE 48 240 48 208
WIRE 80 240 48 240
WIRE 512 256 272 256
WIRE 80 272 -64 272
WIRE 624 288 624 192
WIRE 624 288 272 288
WIRE 80 304 48 304
WIRE 368 320 272 320
WIRE -320 336 -320 320
WIRE -160 336 -160 304
WIRE -160 336 -320 336
WIRE 368 336 368 320
WIRE 624 336 624 288
WIRE -160 352 -160 336
WIRE -64 352 -64 272
WIRE 512 368 512 256
WIRE 368 448 368 416
WIRE -64 560 -64 416
WIRE 48 560 48 304
WIRE 48 560 -64 560
WIRE 368 560 368 512
WIRE 368 560 48 560
WIRE 400 560 368 560
WIRE 512 560 512 448
WIRE 512 560 400 560
WIRE 624 560 624 416
WIRE 624 560 512 560
WIRE 400 592 400 560
FLAG -160 352 0
FLAG 400 592 0
FLAG 400 208 0
FLAG -496 192 0
FLAG -496 -32 Vout
SYMBOL res 496 352 R0
WINDOW 3 36 68 Left 2
SYMATTR Value 60.4K
SYMATTR InstName Rfreq
SYMBOL res 352 320 R0
SYMATTR InstName Rc
SYMATTR Value 2.21K
SYMBOL res 608 320 R0
SYMATTR InstName Rsl
SYMATTR Value 10K
SYMBOL res 608 96 R0
SYMATTR InstName Rsh
SYMATTR Value 187K
SYMBOL cap -176 240 R0
WINDOW 3 24 36 Left 2
SYMATTR Value 10µF
SYMATTR InstName Ci
SYMBOL cap -80 352 R0
WINDOW 3 24 36 Left 2
SYMATTR Value 22nF
SYMATTR InstName Css
SYMBOL cap 352 448 R0
SYMATTR InstName Cc2
SYMATTR Value 1.5nF
SYMBOL cap -512 64 R0
SYMATTR InstName Co
SYMATTR Value 10µF
SYMBOL ind -176 80 R0
SYMATTR InstName L
SYMATTR Value 4.7µH
SYMBOL schottky -240 64 R90
WINDOW 0 0 32 VBottom 2
WINDOW 3 32 32 VTop 2
SYMATTR InstName D1
SYMATTR Value MBR20100CT
SYMATTR Description Diode
SYMATTR Type diode
SYMBOL voltage -320 224 R0
SYMATTR InstName V1
SYMATTR Value 5.3V
SYMBOL AutoGenerated\\TPS55340_TRANS 176 192 R0
SYMATTR InstName U2
SYMATTR SpiceLine SS={0}
TEXT -416 432 Left 2 !.tran 0 5 0 1s
