Version 4
SHEET 1 1780 1252
WIRE 208 -112 64 -112
WIRE 592 -112 208 -112
WIRE 1040 -112 896 -112
WIRE 1424 -112 1040 -112
WIRE 64 -32 64 -112
WIRE 896 -32 896 -112
WIRE 208 -16 208 -112
WIRE 1040 -16 1040 -112
WIRE 592 112 592 -112
WIRE 592 112 464 112
WIRE 1424 112 1424 -112
WIRE 1424 112 1296 112
WIRE 208 128 208 64
WIRE 336 128 208 128
WIRE 896 128 896 48
WIRE 1168 128 896 128
WIRE 656 144 464 144
WIRE 1488 144 1296 144
WIRE 64 160 64 48
WIRE 336 160 64 160
WIRE 656 160 656 144
WIRE 1040 160 1040 64
WIRE 1168 160 1040 160
WIRE 1488 160 1488 144
WIRE 544 176 464 176
WIRE 592 176 544 176
WIRE 1376 176 1296 176
WIRE 1424 176 1376 176
WIRE 592 192 592 176
WIRE 1424 192 1424 176
WIRE 64 208 64 160
WIRE 208 208 208 128
WIRE 544 208 544 176
WIRE 896 208 896 128
WIRE 1040 208 1040 160
WIRE 1376 224 1376 176
WIRE 592 288 592 256
WIRE 1424 288 1424 256
WIRE 64 400 64 288
WIRE 208 400 208 272
WIRE 208 400 64 400
WIRE 592 400 592 368
WIRE 592 400 208 400
WIRE 896 400 896 288
WIRE 1040 400 1040 272
WIRE 1040 400 896 400
WIRE 1424 400 1424 368
WIRE 1424 400 1040 400
WIRE 64 432 64 400
WIRE 896 432 896 400
WIRE 656 528 512 528
WIRE 1040 528 656 528
WIRE 512 592 512 528
WIRE 656 624 656 528
WIRE 1040 736 1040 528
WIRE 1040 736 896 736
WIRE 512 752 512 672
WIRE 768 752 512 752
WIRE 1104 768 896 768
WIRE 224 784 224 560
WIRE 656 784 656 704
WIRE 768 784 656 784
WIRE 1104 784 1104 768
WIRE 976 800 896 800
WIRE 1040 800 976 800
WIRE 1040 816 1040 800
WIRE 512 848 512 752
WIRE 656 848 656 784
WIRE 976 848 976 800
WIRE 1040 912 1040 880
WIRE 512 1040 512 928
WIRE 656 1040 656 912
WIRE 656 1040 512 1040
WIRE 1040 1040 1040 992
WIRE 1040 1040 656 1040
WIRE 224 1072 224 864
WIRE 512 1072 512 1040
FLAG 64 432 0
FLAG 224 1072 0
FLAG 224 560 Vbat
FLAG 512 1072 0
FLAG 64 -112 Vbat
FLAG 512 528 Vbat
FLAG 656 160 0
FLAG 896 432 0
FLAG 896 -112 Vbat
FLAG 1488 160 0
FLAG 1104 784 0
FLAG 544 208 Out1
FLAG 1376 224 Out2
FLAG 976 848 Out3
SYMBOL res 192 -32 R0
SYMATTR InstName R3
SYMATTR Value 10K
SYMBOL voltage 224 768 R0
WINDOW 3 -198 108 Left 2
SYMATTR Value SINE(11 1.6 1 0 0 0.5 1)
SYMATTR InstName Vbat
SYMBOL zener 224 272 R180
WINDOW 0 24 64 Left 2
WINDOW 3 -140 -4 Left 2
SYMATTR InstName D1
SYMATTR Value BZX84C8V2L
SYMBOL res 48 -48 R0
SYMATTR InstName R1
SYMATTR Value 1.8K
SYMBOL res 48 192 R0
SYMATTR InstName R2
SYMATTR Value 8.2K
SYMBOL LED 576 192 R0
SYMATTR InstName D2
SYMBOL res 576 272 R0
SYMATTR InstName R4
SYMATTR Value 680
SYMBOL res 640 608 R0
SYMATTR InstName R5
SYMATTR Value 10K
SYMBOL res 496 832 R0
SYMATTR InstName R7
SYMATTR Value 9K
SYMBOL LED 1024 816 R0
SYMATTR InstName D5
SYMBOL res 1024 896 R0
SYMATTR InstName R8
SYMATTR Value 680
SYMBOL zener 672 912 R180
WINDOW 0 24 64 Left 2
WINDOW 3 -140 3 Left 2
SYMATTR InstName D6
SYMATTR Value BZX84C12L
SYMATTR Description Diode
SYMATTR Type diode
SYMBOL res 1024 -32 R0
SYMATTR InstName R9
SYMATTR Value 10K
SYMBOL zener 1056 272 R180
WINDOW 0 24 64 Left 2
WINDOW 3 -140 -4 Left 2
SYMATTR InstName D3
SYMATTR Value BZX84C8V2L
SYMBOL res 880 -48 R0
SYMATTR InstName R10
SYMATTR Value 1.8K
SYMBOL res 880 192 R0
SYMATTR InstName R11
SYMATTR Value 8.2K
SYMBOL LED 1408 192 R0
SYMATTR InstName D7
SYMBOL res 1408 272 R0
SYMATTR InstName R12
SYMATTR Value 680
SYMBOL res 496 576 R0
SYMATTR InstName R13
SYMATTR Value 1K
SYMBOL AutoGenerated\\LMX24_LM2902 400 144 R0
SYMATTR InstName U1
SYMBOL AutoGenerated\\LMX24_LM2902 1232 144 R0
SYMATTR InstName U2
SYMBOL AutoGenerated\\LMX24_LM2902 832 768 R0
SYMATTR InstName U3
TEXT 32 544 Left 2 !.tran 0 1 0 0.1
