Version 4
SHEET 1 880 680
WIRE 448 128 224 128
WIRE 240 176 224 176
WIRE 448 176 448 128
WIRE 240 224 240 176
WIRE 240 224 224 224
WIRE 176 240 176 208
WIRE 176 240 -48 240
WIRE 240 320 240 224
WIRE 448 320 448 256
WIRE 448 320 240 320
WIRE 448 352 448 320
WIRE -48 368 -48 320
FLAG 448 352 0
FLAG -48 368 0
SYMBOL pmos4 176 128 R0
SYMATTR InstName M1
SYMATTR Value2 l=5um w=10um
SYMBOL voltage -48 224 R0
WINDOW 123 0 0 Left 2
WINDOW 39 0 0 Left 2
SYMATTR InstName V1
SYMATTR Value -1V
SYMBOL voltage 448 160 R0
WINDOW 123 0 0 Left 2
WINDOW 39 0 0 Left 2
SYMATTR InstName V2
SYMATTR Value -5V
TEXT -80 8 Left 2 !.MODEL PMOS PMOS(VT0=0.91 LAMBDA=0.06 KP=17U)
TEXT -56 64 Left 2 !.dc V2 0 -5 0.001 V1 0 -4 -1
